LTspice 24.0.12 for Windows
Circuit: * C:\Users\marti\Documents\GitHub\SPROJ2\Simulation\RRFilter1.asc
Start Time: Sun Jun  1 11:47:23 2025
solver = Normal
Maximum thread count: 16
tnom = 27
temp = 27
method = modified trap
Direct Newton iteration failed to find .op point.  (Use ".option noopiter" to skip.)
Starting Gmin stepping
Gmin = 10
Gmin = 1.07374
Gmin = 0.115292
Gmin = 0.0123794
Gmin = 0.00132923
vernier = 0.5
vernier = 0.25
vernier = 0.125
vernier = 0.0625
Gmin = 0.00100083
vernier = 0.03125
vernier = 0.015625
vernier = 0.0078125
vernier = 0.00390625
vernier = 0.00195312
Gmin = 0.00100083
vernier = 0.000976562
vernier = 0.000488281
Gmin = 0
Gmin stepping failed

Starting source stepping with srcstepmethod=0
Source Step = 3.0303%
Source Step = 33.3333%
Source Step = 63.6364%
Source Step = 93.9394%
vernier = 0.25
Source Step = 94.6999%
Source Step = 94.7295%
Source Step = 94.7591%
Source Step = 94.7887%
Source Step = 94.8183%
Source Step = 94.8479%
vernier = 0.00146484
Source Step = 94.8893%
Source Step = 94.9337%
Source Step = 94.9781%
Source Step = 95.0225%
Source Step = 95.0669%
vernier = 0.00219727
Source Step = 95.1268%
Source Step = 95.1934%
Source Step = 95.26%
Source Step = 95.3266%
Source Step = 95.3931%
vernier = 0.0032959
Source Step = 95.4797%
Source Step = 95.5796%
Source Step = 95.6795%
Source Step = 95.7793%
Source Step = 95.8792%
vernier = 0.00494385
Source Step = 96.004%
Source Step = 96.1539%
Source Step = 96.3037%
Source Step = 96.4535%
Source Step = 96.6033%
vernier = 0.00741577
Source Step = 96.7831%
Source Step = 97.0078%
Source Step = 97.2325%
Source Step = 97.4572%
Source Step = 97.682%
vernier = 0.0111237
Source Step = 97.9404%
Source Step = 98.2775%
Source Step = 98.6145%
Source Step = 98.9516%
Source Step = 99.2887%
vernier = 0.0166855
Source Step = 99.6595%
Source stepping succeeded in finding the operating point.

Total elapsed time: 0.371 seconds.

